/*--------------------------------*- C++ -*----------------------------------*\
| =========                 |                                                 |
| \\      /  F ield         | OpenFOAM: The Open Source CFD Toolbox           |
|  \\    /   O peration     | Version:  2.3.0                                 |
|   \\  /    A nd           | Web:      www.OpenFOAM.org                      |
|    \\/     M anipulation  |                                                 |
\*---------------------------------------------------------------------------*/
FoamFile
{
    version     2.0;
    format      ascii;
    class       volScalarField;
    location    "0";
    object      p;
}
// * * * * * * * * * * * * * * * * * * * * * * * * * * * * * * * * * * * * * //

dimensions      [1 -1 -2 0 0 0 0];

internalField   uniform 1e5;

boundaryField
{
    fuel
    {
        type            zeroGradient;
        
        //type            fixedValue;
        //value           uniform 100000.5;
    }
    air
    {
        type            totalPressure;
        p0              $internalField;
        U               U;
        phi             phi;
        rho             none;
        psi             none;
        gamma           1;
        value           $internalField;
    }
    walls
    {
        type            zeroGradient;
    }
}


// ************************************************************************* //
