/*--------------------------------*- C++ -*----------------------------------*\
| =========                 |                                                 |
| \\      /  F ield         | OpenFOAM: The Open Source CFD Toolbox           |
|  \\    /   O peration     | Version:  2.1.x                                 |
|   \\  /    A nd           | Web:      www.OpenFOAM.org                      |
|    \\/     M anipulation  |                                                 |
\*---------------------------------------------------------------------------*/
FoamFile
{
    version     2.0;
    format      ascii;
    class       dictionary;
    location    "system";
    object      fvSolution;
}
// * * * * * * * * * * * * * * * * * * * * * * * * * * * * * * * * * * * * * //

solvers
{
    rho
    {
        solver          PCG;
        preconditioner  DIC;
        tolerance       1e-12;
        relTol          0.01;
    }

    rhoFinal
    {
        $rho;
        tolerance       1e-12;
        relTol          0;
    }

    pcorr
    {
        solver           PCG;
        preconditioner   DIC;
        tolerance        1e-12;
        relTol           0;
    }
    
    p
    {
        solver           PCG;
        preconditioner   DIC;
        tolerance        1e-12;
        relTol           0;
    }

    pFinal
    {
        $p;
        tolerance        1e-12;
        relTol           0.0;
    }

    "(U|h||k|epsilon)"
    {
        solver          PBiCG;
        preconditioner  DILU;
        tolerance       1e-12;
        relTol          0.01;
    }

    "(U|h||k|epsilon)Final"
    {
        solver          PBiCG;
        preconditioner  DILU;
        tolerance       1e-12;
        relTol          0;
    }

    Yi
    {
        $hFinal;
    }
}

PIMPLE
{
    momentumPredictor no;
    nOuterCorrectors  1;
    nCorrectors     2;
    nNonOrthogonalCorrectors 3;
}


// ************************************************************************* //
